/*--------------------------------*- C++ -*----------------------------------*\
| =========                 |                                                 |
| \\      /  F ield         | OpenFOAM: The Open Source CFD Toolbox           |
|  \\    /   O peration     | Version:  dev                                   |
|   \\  /    A nd           | Web:      www.OpenFOAM.org                      |
|    \\/     M anipulation  |                                                 |
\*---------------------------------------------------------------------------*/
FoamFile
{
    version     2.0;
    format      ascii;
    class       dictionary;
    object      initDict;
}
// * * * * * * * * * * * * * * * * * * * * * * * * * * * * * * * * * * * * * //

// Inputs for setGaussians
backgroundValue vorticityGaussians [0 0 -1 0 0] 0;
gaussians 2
(
    centre [0 1 0 0 0] (20e6 7.5e6 0)
    radius [0 1 0 0 0] 6e5
    max    [0 0 -1 0 0] 5e-5

    centre [0 1 0 0 0] (16e6 4.5e6 0)
    radius [0 1 0 0 0] 6e5
    max    [0 0 -1 0 0] -5e-5
);

// Input for setPlaneJet
Umax Umax [0 1 -1 0 0] 80;
jetCentre jetCentre [0 1  0 0 0 0 0] 6e6;
jetHalfWidth jetHalfWidth [0 1 0 0 0] 3e6;
h0 h0 [0 1 0 0 0] 10e3;

// Input for invertVorticity
// Background wind
U0 U0 [0 1 -1 0 0] (0 0 0);

// Input for movingshallowWaterFoamH
monitorFunctionDynamic monitorFunctionFromNone;
monitorMax 0;
nMonSmooth 0;
monitorBaseMin monitorBaseMin [0 0 0 0 0] 0;
monitorBaseMax monitorBaseMax [0 0 0 0 0] 0;

// ************************************************************************* //
