/*---------------------------------------------------------------------------*\
| =========                 |                                                 |
| \\      /  F ield         | OpenFOAM: The Open Source CFD Toolbox           |
|  \\    /   O peration     | Version:  1.4                                   |
|   \\  /    A nd           | Web:      http://www.openfoam.org               |
|    \\/     M anipulation  |                                                 |
\*---------------------------------------------------------------------------*/

FoamFile
{
    version         2.0;
    format          ascii;

    root            "";
    case            "";
    instance        "";
    local           "";

    class           dictionary;
    object          blockMeshDict;
}

// * * * * * * * * * * * * * * * * * * * * * * * * * * * * * * * * * * * * * //

convertToMeters 1e6;


vertices
(
    (0 0 0)
    (24 0 0)
    (24 12 0)
    (0  12 0)
    (0 0 1)
    (24 0 1)
    (24 12 1)
    (0  12 1)
);

blocks
(
	hex (0 1 2 3 4 5 6 7)  (100 50 1) simpleGrading (1 1 1)
);

edges
(
);

boundary
(
    equator
    {
        type            patch;
        faces           ((0 1 5 4));
    }
    pole
    {
        type            patch;
        faces           ((3 7 6 2));
    }
    inlet
    {
        type            cyclic;
        neighbourPatch  outlet;
        faces           ((0 4 7 3));
    }
    outlet
    {
        type            cyclic;
        neighbourPatch  inlet;
        faces           ((1 2 6 5));
    }
    front
    {
        type            empty;
        faces           ((4 5 6 7));
    }
    back
    {
        type            empty;
        faces           ((0 3 2 1));
    }
);

mergePatchPairs
(
);

// ************************************************************************* //
