FoamFile
{
    version         1.4;
    format          ascii;

    root            "/export/lime/data-04/sws02hs/OpenFOAM/sws02hs-1.4.1/run/shallowWater";
    case            "bucky4_30";
    instance        "constant";
    local           "";

    class           dictionary;
    object          gmtDict;
}

// How to plot
projection "X18c/18c";
projection2D XY;

FieldsToPlot
(
    [divU filledContours -1.05e-12 1.05e-12 1e-13 "$GMTU/colours/red_white_blue.cpt"]
    [Uf vectors 2.5 1 "black"]
    [V    contours 5e6 9e6 1e6 "black"]
    [phi rawValues 0 0 0 "$GMTU/colours/red_white_blue.cpt"]
);

// options
region "2e3/4e3/4e3/6e3";
boundaryMarks "a1e3/a1e3";
separateLegend true;
//overlay true;
plotBoundaryDots false;
