FoamFile
{
    version         1.4;
    format          ascii;

    root            "/export/lime/data-04/sws02hs/OpenFOAM/sws02hs-1.4.1/run/shallowWater";
    case            "bucky4_30";
    instance        "constant";
    local           "";

    class           dictionary;
    object          gmtDict;
}

// How to plot
projection "X18c/18c";
projection2D XY;

FieldsToPlot
(
    [uniT filledContours 0.489 0.511 0.002 "$GMTU/colours/red_white_blue.cpt"]
);

// options
//region "3e3/7e3/7e3/10e3";
//boundaryMarks "a1e3/a1e3";
//separateLegend true;
//overlay true;
plotBoundaryDots false;
annotate "minMax 2000 500";
