FoamFile
{
    version         1.4;
    format          ascii;

    root            "/export/lime/data-04/sws02hs/OpenFOAM/sws02hs-1.4.1/run/shallowWater";
    case            "bucky4_30";
    instance        "constant";
    local           "";

    class           dictionary;
    object          gmtDict;
}

// How to plot
projection "X18c/18c";
projection2D XY;

FieldsToPlot
(
    [T filledContours 0 1 0.025 "$GMTU/colours/white_blue_red.cpt"]
    [none mesh "grey"]
    [U vectors 10 9 "black"]
    [V contours 12.5e5 22.5e5 2.5e5 "black"]
    [V contours 27.5e5 37.5e5 2.5e5 "black"]
);

// options
//region "0/100/0/100";
//boundaryMarks "a1e3/a1e3";
//separateLegend true;
//overlay true;
plotBoundaryDots false;
annotate "minMax 2000 -60";
