/*--------------------------------*- C++ -*----------------------------------*\
| =========                 |                                                 |
| \\      /  F ield         | OpenFOAM: The Open Source CFD Toolbox           |
|  \\    /   O peration     | Version:  dev                                   |
|   \\  /    A nd           | Web:      www.OpenFOAM.org                      |
|    \\/     M anipulation  |                                                 |
\*---------------------------------------------------------------------------*/
FoamFile
{
    version     2.0;
    format      ascii;
    class       dictionary;
    object      initDict;
}
// * * * * * * * * * * * * * * * * * * * * * * * * * * * * * * * * * * * * * //

// Input for OTmesh
maxMAiters             4;
maxMeshVelocity        60;
meshRelax              0;
monitorFunctionDynamic monitorFunctionFromGradU5050;
maxMonitorRatio        2;
nMonSmooth             8;
monitorFromName        gradT;
monitorBaseMin monitorBaseMin [0 0 0 0 0] 0;
monitorBaseMax monitorBaseMax [0 0 0 0 0] 1;
monitorMax 4;

// ************************************************************************* //
