/*--------------------------------*- C++ -*----------------------------------*\
| =========                 |                                                 |
| \\      /  F ield         | OpenFOAM: The Open Source CFD Toolbox           |
|  \\    /   O peration     | Version:  dev                                   |
|   \\  /    A nd           | Web:      www.OpenFOAM.org                      |
|    \\/     M anipulation  |                                                 |
\*---------------------------------------------------------------------------*/
FoamFile
{
    version     2.0;
    format      ascii;
    class       surfaceScalarField;
    location    "constant/rMesh";
    object      deltaCoeffError;
}
// * * * * * * * * * * * * * * * * * * * * * * * * * * * * * * * * * * * * * //

dimensions      [0 -1 0 0 0 0 0];

internalField   nonuniform List<scalar> 
560
(
0
0
-1.05879e-22
-1.05879e-22
1.05879e-22
0
1.05879e-22
0
1.05879e-22
0
0
-1.05879e-22
-1.05879e-22
0
1.05879e-22
0
0
1.05879e-22
1.05879e-22
0
-1.05879e-22
0
0
0
1.05879e-22
0
0
0
-2.11758e-22
0
0
0
1.05879e-22
0
0
0
-1.05879e-22
0
1.05879e-22
0
-1.05879e-22
0
0
0
0
0
1.05879e-22
0
0
0
0
0
-1.05879e-22
0
1.05879e-22
0
0
0
0
0
-2.11758e-22
0
0
0
0
0
0
0
-1.05879e-22
0
1.05879e-22
0
0
0
0
0
0
0
0
0
1.05879e-22
0
1.05879e-22
0
1.05879e-22
0
0
0
0
0
1.05879e-22
0
0
0
0
0
-1.05879e-22
0
0
0
1.05879e-22
0
1.05879e-22
0
1.05879e-22
0
0
0
1.05879e-22
0
-1.05879e-22
0
-1.05879e-22
0
0
0
-1.05879e-22
0
0
0
0
1.05879e-22
0
1.05879e-22
1.05879e-22
0
0
0
0
1.05879e-22
-1.05879e-22
0
-1.05879e-22
0
1.05879e-22
0
0
-1.05879e-22
0
-1.05879e-22
0
1.05879e-22
0
0
0
0
0
1.05879e-22
0
0
0
0
1.05879e-22
0
0
0
0
0
0
-1.05879e-22
0
-1.05879e-22
1.05879e-22
1.05879e-22
0
0
0
-1.05879e-22
0
1.05879e-22
0
0
1.05879e-22
0
-1.05879e-22
0
0
0
0
1.05879e-22
0
0
0
-1.05879e-22
0
1.05879e-22
0
0
0
0
0
0
0
0
0
0
0
0
0
1.05879e-22
0
1.05879e-22
0
0
0
-1.05879e-22
0
0
0
0
0
0
-1.05879e-22
0
1.05879e-22
0
-1.05879e-22
0
0
0
0
0
0
0
0
0
0
0
-1.05879e-22
0
1.05879e-22
0
1.05879e-22
0
-1.05879e-22
0
0
-1.05879e-22
0
0
0
0
0
0
0
0
0
0
0
0
0
-1.05879e-22
0
0
0
0
0
1.05879e-22
0
1.05879e-22
0
1.05879e-22
0
-2.11758e-22
0
0
1.05879e-22
0
0
1.05879e-22
0
0
0
0
0
1.05879e-22
1.05879e-22
0
0
0
-1.05879e-22
0
0
-1.05879e-22
0
0
0
-1.05879e-22
-1.05879e-22
1.05879e-22
1.05879e-22
1.05879e-22
-1.05879e-22
1.05879e-22
1.05879e-22
0
0
0
0
-1.05879e-22
0
0
0
0
0
0
0
-1.05879e-22
0
1.05879e-22
0
0
0
0
0
1.05879e-22
0
-1.05879e-22
0
0
0
0
0
0
0
0
0
0
0
-1.05879e-22
0
0
0
0
0
0
0
0
0
0
0
0
0
0
0
-1.05879e-22
0
0
0
0
0
-1.05879e-22
0
0
0
-1.05879e-22
0
0
0
0
0
0
0
1.05879e-22
0
0
0
0
0
-1.05879e-22
0
0
0
0
0
0
0
0
0
1.05879e-22
0
1.05879e-22
0
0
0
0
0
-1.05879e-22
0
-1.05879e-22
0
0
0
1.05879e-22
0
-1.05879e-22
0
0
0
0
0
1.05879e-22
0
2.11758e-22
0
1.05879e-22
0
0
0
-1.05879e-22
0
-1.05879e-22
0
0
0
0
-1.05879e-22
-1.05879e-22
0
0
0
0
0
0
0
1.05879e-22
1.05879e-22
0
-1.05879e-22
0
1.05879e-22
0
0
0
0
0
0
0
1.05879e-22
0
0
0
0
0
-1.05879e-22
0
0
0
-1.05879e-22
0
0
0
-1.05879e-22
0
-1.05879e-22
0
1.05879e-22
0
0
0
0
0
0
1.05879e-22
0
0
0
0
0
1.05879e-22
0
1.05879e-22
0
0
0
0
0
0
0
1.05879e-22
0
1.05879e-22
0
-1.05879e-22
0
-1.05879e-22
0
0
1.05879e-22
0
-1.05879e-22
0
-1.05879e-22
0
0
0
0
0
1.05879e-22
0
1.05879e-22
0
-1.05879e-22
0
1.05879e-22
0
0
0
0
0
1.05879e-22
0
0
0
1.05879e-22
0
0
0
0
-1.05879e-22
0
1.05879e-22
0
1.05879e-22
0
0
0
1.05879e-22
0
0
0
0
0
-1.05879e-22
0
-1.05879e-22
0
0
0
0
0
-1.05879e-22
0
1.05879e-22
0
0
1.05879e-22
1.05879e-22
0
0
0
-1.05879e-22
0
0
1.05879e-22
1.05879e-22
0
1.05879e-22
-2.11758e-22
1.05879e-22
)
;

boundaryField
{
    equator
    {
        type            calculated;
        value           uniform 0;
    }
    pole
    {
        type            calculated;
        value           uniform 0;
    }
    inlet
    {
        type            cyclic;
        value           uniform 0;
    }
    outlet
    {
        type            cyclic;
        value           uniform 0;
    }
    front
    {
        type            empty;
        value           nonuniform 0();
    }
    back
    {
        type            empty;
        value           nonuniform 0();
    }
}


// ************************************************************************* //
