/*--------------------------------*- C++ -*----------------------------------*\
| =========                 |                                                 |
| \\      /  F ield         | OpenFOAM: The Open Source CFD Toolbox           |
|  \\    /   O peration     | Version:  dev                                   |
|   \\  /    A nd           | Web:      www.OpenFOAM.org                      |
|    \\/     M anipulation  |                                                 |
\*---------------------------------------------------------------------------*/
FoamFile
{
    version     2.0;
    format      ascii;
    class       dictionary;
    object      setGaussinasDict;
}
// * * * * * * * * * * * * * * * * * * * * * * * * * * * * * * * * * * * * * //

backgroundValue vorticity [0 0 -1 0 0] 0;
gaussians 2
(
    centre [0 1 0 0 0] (0 0.0 9e3)
    radius [0 1 0 0 0] 2e3
    max    [0 0 -1 0 0] 5e-2

    centre [0 1 0 0 0] (0 0.0 -9e3)
    radius [0 1 0 0 0] 2e3
    max    [0 0 -1 0 0] -5e-2
);

// Background wind
U0 U0 [0 1 -1 0 0] (10 0 0);

// ************************************************************************* //
