/*--------------------------------*- C++ -*----------------------------------*\
| =========                 |                                                 |
| \\      /  F ield         | OpenFOAM: The Open Source CFD Toolbox           |
|  \\    /   O peration     | Version:  dev                                   |
|   \\  /    A nd           | Web:      www.OpenFOAM.org                      |
|    \\/     M anipulation  |                                                 |
\*---------------------------------------------------------------------------*/
FoamFile
{
    version     2.0;
    format      ascii;
    class       dictionary;
    object      monitorDict;
}
// * * * * * * * * * * * * * * * * * * * * * * * * * * * * * * * * * * * * * //

monitorFunctionFrom monitorFunctionSech;

// Ring
//alpha1 10;
//alpha2 200;
//a 0.25;

// Bell
alpha1 0;
alpha2 0;
a 0.0;

centre (0 0 0);
Gamma Gamma [0 0 0 0 0] 1;
Gamma1 Gamma1 [0 0 0 0 0] 1;
Gamma2 Gamma2 [0 0 0 0 0] 0;

conv 8.0e-9;
