/*---------------------------------------------------------------------------*\
| =========                 |                                                 |
| \\      /  F ield         | OpenFOAM: The Open Source CFD Toolbox           |
|  \\    /   O peration     | Version:  1.4                                   |
|   \\  /    A nd           | Web:      http://www.openfoam.org               |
|    \\/     M anipulation  |                                                 |
\*---------------------------------------------------------------------------*/

FoamFile
{
    version         2.0;
    format          ascii;

    root            "";
    case            "";
    instance        "";
    local           "";

    class           dictionary;
    object          libmonitorFunction;
}

// * * * * * * * * * * * * * * * * * * * * * * * * * * * * * * * * * * * * * //

type  vorticity2D;
region rMesh;
libs   ("libAtmosFoamFieldFunctionObjects.so");
fields
(
    Uf
);
vorticityComponent 1;

// ************************************************************************* //
