FoamFile
{
    version         1.4;
    format          ascii;

    root            "";
    case            "";
    instance        "constant";
    local           "";

    class           dictionary;
    object          gmtDict;
}

// How to plot
// Compulsory inputs
projection "X18c/18c";
projection2D XY;

FieldsToPlot
(
    [monitor filledContours 1 4 0.25 "$GMTU/colours/white_blue_red.cpt"]
    [none mesh "black"]
);

// Options
annotate "minMax 0 -50000";
plotBoundaryDots false;

