/*--------------------------------*- C++ -*----------------------------------*\
| =========                 |                                                 |
| \\      /  F ield         | OpenFOAM: The Open Source CFD Toolbox           |
|  \\    /   O peration     | Version:  dev                                   |
|   \\  /    A nd           | Web:      www.OpenFOAM.org                      |
|    \\/     M anipulation  |                                                 |
\*---------------------------------------------------------------------------*/
FoamFile
{
    version     2.0;
    format      ascii;
    class       surfaceScalarField;
    location    "constant/rMesh";
    object      nonOrthog;
}
// * * * * * * * * * * * * * * * * * * * * * * * * * * * * * * * * * * * * * //

dimensions      [0 1 0 0 0 0 0];

internalField   nonuniform List<scalar> 
560
(
-0.000231427
-0.000583262
-0.000224303
-0.000601497
-0.000217179
-0.000620908
-0.000210055
-0.000641615
-0.000202932
-0.00066375
-0.000195808
-0.000687467
-0.000188684
-0.000712941
-0.000181561
-0.000740375
-0.000174437
-0.000770005
-0.000167314
-0.000802105
-0.00016019
-0.000836998
-0.000153067
-0.000875064
-0.000145944
-0.000916756
-0.000138821
-0.00096262
-0.00101331
0
-0.00207516
-0.00233046
-0.00201128
-0.00240332
-0.0019474
-0.00248088
-0.00188352
-0.00256362
-0.00181964
-0.00265206
-0.00175577
-0.00274682
-0.00169189
-0.0028486
-0.00162801
-0.00295822
-0.00156414
-0.00307661
-0.00150027
-0.00320487
-0.00143639
-0.00334428
-0.00137252
-0.00349638
-0.00130865
-0.00366296
-0.00124478
-0.00384621
-0.00404876
0
-0.00572203
-0.00523391
-0.00554589
-0.00539754
-0.00536976
-0.00557173
-0.00519362
-0.00575754
-0.00501748
-0.00595617
-0.00484135
-0.00616899
-0.00466522
-0.00639759
-0.00448909
-0.00664377
-0.00431296
-0.00690966
-0.00413683
-0.00719771
-0.0039607
-0.00751082
-0.00378458
-0.0078524
-0.00360846
-0.00822653
-0.00343235
-0.00863809
-0.00909298
0
-0.0110928
-0.00928096
-0.0107514
-0.00957112
-0.0104099
-0.00988001
-0.0100685
-0.0102095
-0.00972699
-0.0105617
-0.00938554
-0.0109391
-0.00904408
-0.0113444
-0.00870263
-0.011781
-0.00836118
-0.0122525
-0.00801974
-0.0127632
-0.0076783
-0.0133185
-0.00733686
-0.0139242
-0.00699544
-0.0145876
-0.00665401
-0.0153174
-0.016124
0
-0.0180735
-0.0170614
-0.0175171
-0.0170872
-0.0169608
-0.0171083
-0.0164044
-0.017125
-0.0158481
-0.0171376
-0.0152918
-0.0171465
-0.0147354
-0.0171518
-0.0141791
-0.0171536
-0.0136228
-0.0171518
-0.0130665
-0.0171465
-0.0125102
-0.0171376
-0.0119539
-0.017125
-0.0113976
-0.0171083
-0.0108413
-0.0170872
-1.11022e-16
-0.0170614
-0.000138821
-0.00101331
-0.000145944
-0.00096262
-0.000153067
-0.000916756
-0.00016019
-0.000875064
-0.000167314
-0.000836998
-0.000174437
-0.000802105
-0.000181561
-0.000770005
-0.000188684
-0.000740375
-0.000195808
-0.000712941
-0.000202932
-0.000687467
-0.000210055
-0.00066375
-0.000217179
-0.000641615
-0.000224303
-0.000620908
-0.000231427
-0.000601497
-0.000583262
-0.00124478
-0.00404876
-0.00130865
-0.00384621
-0.00137252
-0.00366296
-0.00143639
-0.00349638
-0.00150027
-0.00334428
-0.00156414
-0.00320487
-0.00162801
-0.00307661
-0.00169189
-0.00295822
-0.00175577
-0.0028486
-0.00181964
-0.00274682
-0.00188352
-0.00265206
-0.0019474
-0.00256362
-0.00201128
-0.00248088
-0.00207516
-0.00240332
-0.00233046
-0.00343235
-0.00909298
-0.00360846
-0.00863809
-0.00378458
-0.00822653
-0.0039607
-0.0078524
-0.00413683
-0.00751082
-0.00431296
-0.00719771
-0.00448909
-0.00690966
-0.00466522
-0.00664377
-0.00484135
-0.00639759
-0.00501748
-0.00616899
-0.00519362
-0.00595617
-0.00536976
-0.00575754
-0.00554589
-0.00557173
-0.00572203
-0.00539754
-0.00523391
-0.00665401
-0.016124
-0.00699544
-0.0153174
-0.00733686
-0.0145876
-0.0076783
-0.0139242
-0.00801974
-0.0133185
-0.00836118
-0.0127632
-0.00870263
-0.0122525
-0.00904408
-0.011781
-0.00938554
-0.0113444
-0.00972699
-0.0109391
-0.0100685
-0.0105617
-0.0104099
-0.0102095
-0.0107514
-0.00988001
-0.0110928
-0.00957112
-0.00928096
-0.0108413
-0.0170614
-0.0113976
-0.0170872
-0.0119539
-0.0171083
-0.0125102
-0.017125
-0.0130665
-0.0171376
-0.0136228
-0.0171465
-0.0141791
-0.0171518
-0.0147354
-0.0171536
-0.0152918
-0.0171518
-0.0158481
-0.0171465
-0.0164044
-0.0171376
-0.0169608
-0.017125
-0.0175171
-0.0171083
-0.0180735
-0.0170872
-0.0170614
-0.0108413
-0.016124
-0.0113976
-0.0153174
-0.0119539
-0.0145876
-0.0125102
-0.0139242
-0.0130665
-0.0133185
-0.0136228
-0.0127632
-0.0141791
-0.0122525
-0.0147354
-0.011781
-0.0152918
-0.0113444
-0.0158481
-0.0109391
-0.0164044
-0.0105617
-0.0169608
-0.0102095
-0.0175171
-0.00988001
-0.0180735
-0.00957112
-0.00928096
-2.22045e-16
-0.00665401
-0.00909298
-0.00699544
-0.00863808
-0.00733686
-0.00822653
-0.0076783
-0.0078524
-0.00801974
-0.00751082
-0.00836118
-0.00719771
-0.00870263
-0.00690966
-0.00904408
-0.00664377
-0.00938554
-0.00639759
-0.00972699
-0.00616899
-0.0100685
-0.00595617
-0.0104099
-0.00575754
-0.0107514
-0.00557173
-0.0110928
-0.00539754
-0.00523391
0
-0.00343235
-0.00404876
-0.00360846
-0.00384621
-0.00378458
-0.00366296
-0.0039607
-0.00349638
-0.00413683
-0.00334428
-0.00431296
-0.00320487
-0.00448909
-0.00307661
-0.00466522
-0.00295822
-0.00484135
-0.0028486
-0.00501748
-0.00274682
-0.00519362
-0.00265206
-0.00536976
-0.00256362
-0.00554589
-0.00248088
-0.00572203
-0.00240332
-0.00233046
0
-0.00124478
-0.00101331
-0.00130865
-0.000962619
-0.00137252
-0.000916756
-0.00143639
-0.000875064
-0.00150027
-0.000836998
-0.00156414
-0.000802105
-0.00162801
-0.000770005
-0.00169189
-0.000740375
-0.00175577
-0.000712941
-0.00181964
-0.000687467
-0.00188352
-0.00066375
-0.0019474
-0.000641615
-0.00201128
-0.000620908
-0.00207516
-0.000601497
-0.000583262
0
-0.000138821
-0.000145944
-0.000153067
-0.00016019
-0.000167314
-0.000174437
-0.000181561
-0.000188684
-0.000195808
-0.000202932
-0.000210055
-0.000217179
-0.000224303
-0.000231427
0
-0.0180735
-0.00928096
-0.0175171
-0.00957112
-0.0169608
-0.00988001
-0.0164044
-0.0102095
-0.0158481
-0.0105617
-0.0152918
-0.0109391
-0.0147354
-0.0113444
-0.0141791
-0.011781
-0.0136228
-0.0122525
-0.0130665
-0.0127632
-0.0125102
-0.0133185
-0.0119539
-0.0139242
-0.0113976
-0.0145876
-0.0108413
-0.0153174
-0.016124
-0.0110928
-0.00523391
-0.0107514
-0.00539754
-0.0104099
-0.00557173
-0.0100685
-0.00575754
-0.00972699
-0.00595617
-0.00938554
-0.00616899
-0.00904408
-0.00639759
-0.00870263
-0.00664377
-0.00836118
-0.00690966
-0.00801974
-0.00719771
-0.0076783
-0.00751082
-0.00733686
-0.0078524
-0.00699544
-0.00822653
-0.00665401
-0.00863808
-0.00909298
-0.00572203
-0.00233046
-0.00554589
-0.00240332
-0.00536976
-0.00248088
-0.00519362
-0.00256362
-0.00501748
-0.00265206
-0.00484135
-0.00274682
-0.00466522
-0.0028486
-0.00448909
-0.00295822
-0.00431296
-0.00307661
-0.00413683
-0.00320487
-0.0039607
-0.00334428
-0.00378458
-0.00349638
-0.00360846
-0.00366296
-0.00343235
-0.00384621
-0.00404876
-0.00207516
-0.000583262
-0.00201128
-0.000601497
-0.0019474
-0.000620908
-0.00188352
-0.000641615
-0.00181964
-0.00066375
-0.00175577
-0.000687467
-0.00169189
-0.000712941
-0.00162801
-0.000740375
-0.00156414
-0.000770005
-0.00150027
-0.000802105
-0.00143639
-0.000836998
-0.00137252
-0.000875064
-0.00130865
-0.000916756
-0.00124478
-0.000962619
-0.00101331
-0.000231427
-0.000224303
-0.000217179
-0.000210055
-0.000202932
-0.000195808
-0.000188684
-0.000181561
-0.000174437
-0.000167314
-0.00016019
-0.000153067
-0.000145944
-0.000138821
)
;

boundaryField
{
    equator
    {
        type            calculated;
        value           nonuniform List<scalar> 
30
(
0
0
0
-2.22045e-16
0
0
2.22045e-16
0
4.44089e-16
4.44089e-16
-4.44089e-16
4.44089e-16
-4.44089e-16
-4.44089e-16
0
0
4.44089e-16
-4.44089e-16
4.44089e-16
-4.44089e-16
4.44089e-16
4.44089e-16
0
0
0
0
0
0
0
0
)
;
    }
    pole
    {
        type            calculated;
        value           nonuniform List<scalar> 
30
(
0
0
0
4.44089e-16
4.44089e-16
0
0
-2.22045e-16
2.22045e-16
2.22045e-16
0
2.22045e-16
0
0
2.22045e-16
0
0
0
2.22045e-16
-2.22045e-16
0
-2.22045e-16
-2.22045e-16
4.44089e-16
0
4.44089e-16
0
0
0
0
)
;
    }
    inlet
    {
        type            cyclic;
        value           nonuniform List<scalar> 10(-2.22045e-16 0 0 0 0 0 -1.11022e-16 1.11022e-16 0 0);
    }
    outlet
    {
        type            cyclic;
        value           nonuniform List<scalar> 10(-2.22045e-16 0 0 0 0 0 -1.11022e-16 1.11022e-16 0 0);
    }
    front
    {
        type            empty;
        value           nonuniform 0();
    }
    back
    {
        type            empty;
        value           nonuniform 0();
    }
}


// ************************************************************************* //
