/*---------------------------------------------------------------------------*\
| =========                 |                                                 |
| \\      /  F ield         | OpenFOAM: The Open Source CFD Toolbox           |
|  \\    /   O peration     | Version:  1.4                                   |
|   \\  /    A nd           | Web:      http://www.openfoam.org               |
|    \\/     M anipulation  |                                                 |
\*---------------------------------------------------------------------------*/

FoamFile
{
    version         2.0;
    format          ascii;

    root            "";
    case            "";
    instance        "";
    local           "";

    class           dictionary;
    object          blockMeshDict;
}

// * * * * * * * * * * * * * * * * * * * * * * * * * * * * * * * * * * * * * //

// This file makes a 1D domain with cyclic boundary conditions


convertToMeters 1;

a 0.1666666667;
twoa 0.333333333;
foura 0.666666667;
threea 0.5;
sixa 1;
//am 4267.949192431;
//ap 7732.050807569;
am 6000;
ap 6000;

zheight 1;
ydepth 1;
ydepthhalf 0.5;

vertices
(
    (0 0 0)
    ($threea 0 0)
    ($sixa 0 0)
    (0 $ydepthhalf 0)
    ($threea $ydepthhalf 0)
    ($sixa $ydepthhalf 0)
    (0 $ydepth 0)
    ($threea $ydepth 0)
    ($sixa $ydepth 0)
    (0 0 $zheight)
    ($threea 0 $zheight)
    ($sixa 0 $zheight)
    (0 $ydepthhalf $zheight)
    ($threea $ydepthhalf $zheight)
    ($sixa $ydepthhalf $zheight)
    (0 $ydepth $zheight)
    ($threea $ydepth $zheight)
    ($sixa $ydepth $zheight)
);

blocks
(
    hex (0 2 8 6 9 11 17 15) (20 1 1) simpleGrading (1 1 1)
	// hex (0 1 4 3 9 10 13 12) (75 1 1) simpleGrading (1 1 1)
	// hex (1 2 5 4 10 11 14 13) (75 1 1) simpleGrading (1 1 1)
	// hex (3 4 7 6 12 13 16 15) (75 1 1) simpleGrading (1 1 1)
	// hex (4 5 8 7 13 14 17 16) (75 1 1) simpleGrading (1 1 1)
);

edges
(
);

boundary
(
    outerShell
    {
        type            empty;
        //faces           ((0 1 10 9) (1 2 11 10));
        faces           ((0 2 11 9));// (1 2 11 10));
    }
    innerShell
    {
        type            empty;
        //faces           ((15 16 7 6) (16 17 8 7));
        faces           ((15 17 8 6));// (16 17 8 7));
    }
    inlet
    {
//        type            patch;
        type cyclic;
        neighbourPatch  outlet;
        //faces           ((9 12 3 0) (12 15 6 3));
        faces           ((9 15 6 0));// (12 15 6 3));        
    }
    outlet
    {
//        type            patch;
        type cyclic;
        neighbourPatch  inlet;
        //faces           ((2 5 14 11) (5 8 17 14));
        faces           ((2 8 17 11));// (5 8 17 14));        
    }
    z1
    {
        type            empty;
//        neighbourPatch  back;
        //faces           ((9 10 13 12) (10 11 14 13)
        //                 (12 13 16 15) (13 14 17 16));
        faces           ((9 11 17 15));
    }
    z0
    {
        type            empty;
//        neighbourPatch  front;
        //faces           ((0 3 4 1) (1 4 5 2) (3 6 7 4) (4 7 8 5));
        faces           ((0 6 8 2));// (1 4 5 2) (3 6 7 4) (4 7 8 5));
    }
);

mergePatchPairs
(
);

// ************************************************************************* //
