/*---------------------------------------------------------------------------*\
| =========                 |                                                 |
| \\      /  F ield         | OpenFOAM: The Open Source CFD Toolbox           |
|  \\    /   O peration     | Version:  1.4                                   |
|   \\  /    A nd           | Web:      http://www.openfoam.org               |
|    \\/     M anipulation  |                                                 |
\*---------------------------------------------------------------------------*/

FoamFile
{
    version         2.0;
    format          ascii;

    root            "";
    case            "";
    instance        "";
    local           "";

    class           dictionary;
    object          fvSchemes;
}

// * * * * * * * * * * * * * * * * * * * * * * * * * * * * * * * * * * * * * //

ddtSchemes
{
    default Euler;
}
offCentre 0.5;

gradSchemes
{
    default         none;
    linearUpwind    leastSquares;
    gradT           leastSquares;
}

divSchemes
{
    default             none;
    div(phi,T)          Gauss linearUpwind linearUpwind;
}

laplacianSchemes
{
    default         none;
}

interpolationSchemes
{
    default        none;
    gradT          linear;
}

snGradSchemes
{
    default         none;
}

fluxRequired
{
    default         no;
    h;
}


// ************************************************************************* //
