FoamFile
{
    version         2.3;
    format          ascii;

    root            "";
    case            "";
    instance        "constant";
    local           "";

    class           dictionary;
    object          gmtDict;
}

// How to plot
// Compulsory inputs
projection "X18c/18c";
projection2D XZ;

FieldsToPlot
(
    [monitor filledContours 1 6 0.5 "$GMTU/colours/white_blue_red.cpt"]
    [none mesh "grey"]
    [Uf vectors 50 5 "black"]
);

//separateLegend true;
//region "-25e3/25e3/0/25e3";
//annotate "minMax -7.5e3 -5000";
//boundaryMarks "5e3/5e3";

