/*--------------------------------*- C++ -*----------------------------------*\
| =========                 |                                                 |
| \\      /  F ield         | OpenFOAM: The Open Source CFD Toolbox           |
|  \\    /   O peration     | Version:  1.5                                   |
|   \\  /    A nd           | Web:      http://www.OpenFOAM.org               |
|    \\/     M anipulation  |                                                 |
\*---------------------------------------------------------------------------*/
FoamFile
{
    version     2.0;
    format      ascii;
    class       dictionary;
    object      fvSolution;
}
// * * * * * * * * * * * * * * * * * * * * * * * * * * * * * * * * * * * * * //

solvers
{
    "mmPhi|mmphi"
    {
        solver GAMG; //BICCG;
        smoother symGaussSeidel;
        preconditioner   DILU;
        tolerance        1e-13;
        relTol           1e-10;
        maxIter          500;
        debug 1;
        DebugSwitch 0;
    };
}

nCorrectors 3;

relaxationFactors
{
    equations
    {
        //phi               0.999;
    }
}
// ************************************************************************* //
