/*--------------------------------*- C++ -*----------------------------------*\
| =========                 |                                                 |
| \\      /  F ield         | OpenFOAM: The Open Source CFD Toolbox           |
|  \\    /   O peration     | Version:  dev                                   |
|   \\  /    A nd           | Web:      www.OpenFOAM.org                      |
|    \\/     M anipulation  |                                                 |
\*---------------------------------------------------------------------------*/
FoamFile
{
    version     2.0;
    format      binary;
    class       dictionary;
    location    "system";
    object      initDict;
}
// * * * * * * * * * * * * * * * * * * * * * * * * * * * * * * * * * * * * * //

monitorFunctionDynamic monitorFunctionFromLinQ;

monitorBaseMin  monitorBaseMin [ 0 0 -2 0 0 ] 0;

monitorBaseMax  monitorBaseMax [ 0 0 -2 0 0 ] 7e-10;

monitorMax      4;

nMonSmooth      4;


// ************************************************************************* //
