FoamFile
{
    version         1.4;
    format          ascii;

    root            "";
    case            "";
    instance        "constant";
    local           "";

    class           dictionary;
    object          gmtDict;
}

// How to plot
// Compulsory inputs
projection "X18c/9c";
projection2D XZ;
plotBoundaryDots false;
patch ground;

FieldsToPlot
(
    [none mesh "black"]
);

region "0.01/0.9999e4/-1.01e3/1.01e3";