FoamFile
{
    version         1.4;
    format          ascii;

    root            "/export/lime/data-04/sws02hs/OpenFOAM/sws02hs-1.4.1/run/shallowWater";
    case            "bucky4_30";
    instance        "constant";
    local           "";

    class           dictionary;
    object          gmtDict;
}

// How to plot
projection "X18c/18c";
projection2D XY;

FieldsToPlot
(
    [V contours 0.5e7 0.9e7 1.0e6 "1,black"]
    [V contours 1.1e7 1.5e7 1.0e6 "1,black,5_5:"]
);

// options
//region "0.01/0.9999e4/0/1.01e4";
//boundaryMarks "a1e3/a1e3";
//separateLegend true;
overlay true;
lastPlot true;
plotBoundaryDots false;

