FoamFile
{
    version         1.4;
    format          ascii;

    root            "";
    case            "";
    instance        "constant";
    local           "";

    class           dictionary;
    object          gmtDict;
}

// How to plot
// Compulsory inputs
projection "X18c/18c";
projection2D XY;

FieldsToPlot
(
    [h contours 100000 110000 1000 "1,black"]
    [h contours 80000 99000 1000 "2,black,5_5:"]
);

// Options
plotBoundaryDots false;
//separateLegend true;
//region "-25e3/25e3/0/25e3";
annotate "minMax 0 -38000";
//boundaryMarks "5e3/5e3";

