FoamFile
{
    version         1.4;
    format          ascii;

    root            "";
    case            "";
    instance        "constant";
    local           "";

    class           dictionary;
    object          gmtDict;
}

// How to plot
// Compulsory inputs
projection "X18c/9c";
projection2D XY;

FieldsToPlot
(
    [h0 filledContours 0 0 0 "$GMTU/colours/white_blue_red.cpt"]
    [none mesh "grey"]
);

// Options
plotBoundaryDots false;
//separateLegend true;
//region "-25e3/25e3/0/25e3";
annotate "minMax 0 -38000";
//boundaryMarks "5e3/5e3";

