FoamFile
{
    version         1.4;
    format          ascii;

    root            "";
    case            "";
    instance        "constant";
    local           "";

    class           dictionary;
    object          gmtDict;    
}

// How to plot
// Compulsory inputs
projection "X18c/6c";          // see man psxy for details on -J options
projection2D XY;                // either XY, XZ, YZ or latLon
plotBoundaryDots false;


FieldsToPlot
(
    [hDiff filledContours 0 0 0 "$GMTU/colours/red_white_blue.cpt"]
    [UDiff vectors 0 4 "black"]
);

// other options:
region "1/36e6/1/12e6";
annotate "minMax 0 -0.01";

