/*---------------------------------------------------------------------------*\
| =========                 |                                                 |
| \\      /  F ield         | OpenFOAM: The Open Source CFD Toolbox           |
|  \\    /   O peration     | Version:  1.4                                   |
|   \\  /    A nd           | Web:      http://www.openfoam.org               |
|    \\/     M anipulation  |                                                 |
\*---------------------------------------------------------------------------*/

FoamFile
{
    version         2.0;
    format          ascii;

    root            "";
    case            "";
    instance        "";
    local           "";

    class           dictionary;
    object          fvSchemes;
}

// * * * * * * * * * * * * * * * * * * * * * * * * * * * * * * * * * * * * * //

ddtSchemes
{
    default CrankNicolson 1;
}
CoriRecon 0;
ACblend 0;

gradSchemes
{
    default         none;
    linearUpwind    leastSquares;
    grad(streamFunction) Gauss linear;
    curl((streamFunction*(0,0,1))) Gauss linear;
    grad(p)         Gauss linear;
    curl(U)         Gauss linear;
}

divSchemes
{
    default         none;
    div(phi,U)      Gauss linearUpwind linearUpwind;
}

laplacianSchemes
{
    default         none;
    laplacian(streamFunction) Gauss linear uncorrected;
    laplacian((1|A(U)),p) Gauss linear uncorrected;
    laplacian(rAUf,pcorr) Gauss linear uncorrected;
}

interpolationSchemes
{
    default            linear;
    interpolate(U)     linear;
    dotInterpolate(S,U_0) linear;
    interpolate((1|A(U))) linear;
    flux(((1|A(U))*H(U))) linear;
    flux(HbyA)            linear;
}

snGradSchemes
{
    default         none;
    snGrad(p)       uncorrected;
}

fluxRequired
{
    default         no;
    p;
}


// ************************************************************************* //
