/*--------------------------------*- C++ -*----------------------------------*\
| =========                 |                                                 |
| \\      /  F ield         | OpenFOAM: The Open Source CFD Toolbox           |
|  \\    /   O peration     | Version:  dev                                   |
|   \\  /    A nd           | Web:      www.OpenFOAM.org                      |
|    \\/     M anipulation  |                                                 |
\*---------------------------------------------------------------------------*/

FoamFile
{
    version     2.0;
    format      ascii;
    class       dictionary;
    location    "system";
    object      controlDict;
}

// * * * * * * * * * * * * * * * * * * * * * * * * * * * * * * * * * * * * * //

libs
(
    "libfiniteVolumeAtmos.so"
    "libshallowWater.so"
    "libfiniteVolumeAtmosFOAMtools.so"
    "libmonitorFunction.so"
);

startFrom       startTime;

startTime       0;

stopAt          endTime;

endTime         600;

deltaT          0.5;

writeControl    runTime;

writeInterval   50;

purgeWrite      0;

writeFormat     binary;

writePrecision  6;

writeCompression off;

timeFormat      general;

timePrecision   8;

runTimeModifiable no;

adjustTimeStep  no;

maxCo           0.5;

// ************************************************************************* //
