/*--------------------------------*- C++ -*----------------------------------*\
| =========                 |                                                 |
| \\      /  F ield         | OpenFOAM: The Open Source CFD Toolbox           |
|  \\    /   O peration     | Version:  1.5                                   |
|   \\  /    A nd           | Web:      http://www.OpenFOAM.org               |
|    \\/     M anipulation  |                                                 |
\*---------------------------------------------------------------------------*/

FoamFile
{
    version     2.0;
    format      ascii;
    class       dictionary;
    object      fvSolution;
}

// * * * * * * * * * * * * * * * * * * * * * * * * * * * * * * * * * * * * * //

nIteration 1;

solvers
{
    "A|T|uniT|Tm|uniTm"
    {
        solver none;
        tolerance       0;
    }
}

// solvers
// {
//     "T|uniT"
//     {
//         solver smoothSolver;
//         smoother GaussSeidel;
//         tolerance       1e-8;
//     }
// }

// ************************************************************************* //
