FoamFile
{
    version         2.3;
    format          ascii;

    root            "";
    case            "";
    instance        "constant";
    local           "";

    class           dictionary;
    object          gmtDict;
}

// How to plot
// Compulsory inputs
projection "X18c/18c";
projection2D XZ;

FieldsToPlot
(
    [p filledContours -2850 2850 300 "$GMTU/colours/red_white_blue.cpt"]
    [none mesh "grey"]
    [Uf vectors 50 2 "black"]
);

//separateLegend true;
//region "-25e3/25e3/0/25e3";
//annotate "minMax -7.5e3 -5000";
boundaryMarks "5e3/5e3";

