FoamFile
{
    version         2.3;
    format          ascii;

    root            "";
    case            "";
    instance        "constant";
    local           "";

    class           dictionary;
    object          gmtDict;
}

// How to plot
// Compulsory inputs
projection "X18c/9c";
projection2D XZ;

FieldsToPlot
(
    //[none mesh "grey"]
    [Uf vectors 50 1 "black"]
);

separateLegend true;
region "-50e3/50e3/0/25e3";
annotate "minMax -1.2e3 -800";
boundaryMarks "5e4/2.5e3";

