/*--------------------------------*- C++ -*----------------------------------*\
| =========                 |                                                 |
| \\      /  F ield         | OpenFOAM: The Open Source CFD Toolbox           |
|  \\    /   O peration     | Version:  dev                                   |
|   \\  /    A nd           | Web:      www.OpenFOAM.org                      |
|    \\/     M anipulation  |                                                 |
\*---------------------------------------------------------------------------*/
FoamFile
{
    version     2.0;
    format      ascii;
    class       dictionary;
    object      initDict;
}
// * * * * * * * * * * * * * * * * * * * * * * * * * * * * * * * * * * * * * //


// Input for movingScalarTransportFoam
monitorFunctionDynamic monitorFunctionFromNone;
monitorBaseMin  monitorBaseMin [ 0 0 -1 0 0 ] 0;
monitorBaseMax  monitorBaseMax [ 0 0 -1 0 0 ] 0;
monitorMax      1;
nMonSmooth      0;

// ************************************************************************* //
