/*---------------------------------------------------------------------------*\
| =========                 |                                                 |
| \\      /  F ield         | OpenFOAM: The Open Source CFD Toolbox           |
|  \\    /   O peration     | Version:  1.4                                   |
|   \\  /    A nd           | Web:      http://www.openfoam.org               |
|    \\/     M anipulation  |                                                 |
\*---------------------------------------------------------------------------*/

FoamFile
{
    version         2.0;
    format          ascii;

    root            "";
    case            "";
    instance        "";
    local           "";

    class           dictionary;
    object          fvSchemes;
}

// * * * * * * * * * * * * * * * * * * * * * * * * * * * * * * * * * * * * * //

ddtSchemes
{
    default Euler;
}
offCentre 0.5;

gradSchemes
{
    default         none;
    linearUpwind    leastSquares;
    grad(h)         Gauss linear;
}

divSchemes
{
    default             none;
    div(U,u)            Gauss linearUpwind linearUpwind;
}

laplacianSchemes
{
    default         none;
    h Gauss linear uncorrected;
}

interpolationSchemes
{
    default        none;
    interpolate(h) linear;
    Uf linear;
    H  linear;
    interpolate(grad(h)) linear;
    divuu          linear;
    interpolate(reconstructd(dVdt)) linear;
}

snGradSchemes
{
    default         none;
    snGrad(h)       uncorrected;
}

fluxRequired
{
    default         no;
    h;
}


// ************************************************************************* //
