/*--------------------------------*- C++ -*----------------------------------*\
| =========                 |                                                 |
| \\      /  F ield         | OpenFOAM: The Open Source CFD Toolbox           |
|  \\    /   O peration     | Version:  dev                                   |
|   \\  /    A nd           | Web:      www.OpenFOAM.org                      |
|    \\/     M anipulation  |                                                 |
\*---------------------------------------------------------------------------*/
FoamFile
{
    version     2.0;
    format      binary;
    class       dictionary;
    location    "system";
    object      initDict;
}
// * * * * * * * * * * * * * * * * * * * * * * * * * * * * * * * * * * * * * //

monitorFunctionDynamic monitorFunctionFromNone;
monScale        monScale [ 0 0 0 0 0 ] 0;
nMonSmooth      0;
monitorBaseMin monitorBaseMin [0 0 0 0 0] 0;
monitorBaseMax monitorBaseMax [0 0 0 0 0] 0;
monitorMax 1;



// ************************************************************************* //
