/*---------------------------------------------------------------------------*\
1;4205;0c| =========                 |                                                 |
| \\      /  F ield         | OpenFOAM: The Open Source CFD Toolbox           |
|  \\    /   O peration     | Version:  1.4                                   |
|   \\  /    A nd           | Web:      http://www.openfoam.org               |
|    \\/     M anipulation  |                                                 |
\*---------------------------------------------------------------------------*/

FoamFile
{
    version         2.0;
    format          ascii;

    root            "";
    case            "";
    instance        "";
    local           "";

    class           dictionary;
    object          initialConditions;
}

// * * * * * * * * * * * * * * * * * * * * * * * * * * * * * * * * * * * * * //

u0 u0 [0 1 -1 0 0 0 0] -0.0001;
T0 T0 [0 0 0 0 0] 10000;
orog_height 0.0;
wave_centre (0.25 0 0);
wave_angle 0.75;
wave_height 00;
wave_width 0.5;
he he [0 1 0 0 0] 1;

// ************************************************************************* //
