/*--------------------------------*- C++ -*----------------------------------*\
| =========                 |                                                 |
| \\      /  F ield         | OpenFOAM: The Open Source CFD Toolbox           |
|  \\    /   O peration     | Version:  dev                                   |
|   \\  /    A nd           | Web:      www.OpenFOAM.org                      |
|    \\/     M anipulation  |                                                 |
\*---------------------------------------------------------------------------*/
FoamFile
{
    version     2.0;
    format      binary;
    class       dictionary;
    location    "system";
    object      initDict;
}
// * * * * * * * * * * * * * * * * * * * * * * * * * * * * * * * * * * * * * //

monitorFunctionDynamic monitorFunctionFromLinGradU;
monitorBaseMin  monitorBaseMin [ 0 0 -1 0 0 ] 0;
monitorBaseMax  monitorBaseMax [ 0 0 -1 0 0 ] 1e-4;
monitorMax      4;
nMonSmooth      10;

// ************************************************************************* //
