/*--------------------------------*- C++ -*----------------------------------*\
| =========                 |                                                 |
| \\      /  F ield         | OpenFOAM: The Open Source CFD Toolbox           |
|  \\    /   O peration     | Version:  dev                                   |
|   \\  /    A nd           | Web:      www.OpenFOAM.org                      |
|    \\/     M anipulation  |                                                 |
\*---------------------------------------------------------------------------*/
FoamFile
{
    version     2.0;
    format      ascii;
    class       dictionary;
    object      initDict;
}
// * * * * * * * * * * * * * * * * * * * * * * * * * * * * * * * * * * * * * //

// Input for setWavyJet
Umax Umax [0 1 -1 0 0] 80;
jetCentre jetCentre [0 1  0 0 0 0 0] 8e6;
jetHalfWidth jetHalfWidth [0 1 0 0 0] 2e6;
jetWaveLength jetWaveLength [0 1 0 0 0] 12e6;
jetWaveAmplitude jetWaveAmplitude  [0 1 0 0 0] 2e6;

h0 h0 [0 1 0 0 0] 10e3;

// Input for invertVorticity
// Background wind
U0 U0 [0 1 -1 0 0] (0 0 0);

// Input for movingshallowWaterFoamH
monitorFunctionDynamic monitorFunctionFromNone;
monitorMax 0;
nMonSmooth 0;
monitorBaseMin monitorBaseMin [0 0 0 0 0] 0;
monitorBaseMax monitorBaseMax [0 0 0 0 0] 0;

// ************************************************************************* //
