/*--------------------------------*- C++ -*----------------------------------*\
| =========                 |                                                 |
| \\      /  F ield         | OpenFOAM: The Open Source CFD Toolbox           |
|  \\    /   O peration     | Version:  dev                                   |
|   \\  /    A nd           | Web:      www.OpenFOAM.org                      |
|    \\/     M anipulation  |                                                 |
\*---------------------------------------------------------------------------*/
FoamFile
{
    version     2.0;
    format      ascii;
    class       volVectorField;
    location    "0/pMesh";
    object      U;
}
// * * * * * * * * * * * * * * * * * * * * * * * * * * * * * * * * * * * * * //

dimensions      [0 1 -1 0 0 0 0];

internalField   uniform (0 0 0);

boundaryField
{
    outerShell
    {
        type            noSlip;
    }
    innerShell
    {
        type            noSlip;
    }
    z1
    {
        type            noSlip;
    }
    z0
    {
        type            noSlip;
    }
    inlet
        {
            type            noSlip;
            //type cyclic;
            //neighbour outlet;
        }
    outlet
        {
            type            noSlip;
            //type cyclic;
            //neighbour inlet;
        }
    
}


// ************************************************************************* //
