/*--------------------------------*- C++ -*----------------------------------*\
| =========                 |                                                 |
| \\      /  F ield         | OpenFOAM: The Open Source CFD Toolbox           |
|  \\    /   O peration     | Version:  dev                                   |
|   \\  /    A nd           | Web:      www.OpenFOAM.org                      |
|    \\/     M anipulation  |                                                 |
\*---------------------------------------------------------------------------*/
FoamFile
{
    version     2.0;
    format      ascii;
    class       dictionary;
    object      initDict;
}
// * * * * * * * * * * * * * * * * * * * * * * * * * * * * * * * * * * * * * //

// Input for OTmesh
maxMAiters             4;
maxMeshVelocity        1e6;
meshRelax              0;
monitorFunctionDynamic monitorFunctionFromGradU5050;
maxMonitorRatio        4;
smoothCoeff            20;
monitorFromName        gradT;

// ************************************************************************* //
