// The FOAM Project // File: fvSchemes
/*
-------------------------------------------------------------------------------
 =========         | dictionary
 \\      /         |
  \\    /          | Name:   fvSchemes
   \\  /           | Family: FoamX configuration file
    \\/            |
    F ield         | FOAM version: 2.3
    O peration     | Product of Nabla Ltd.
    A and          |
    M anipulation  | Email: Enquiries@Nabla.co.uk
-------------------------------------------------------------------------------
*/
// FoamX Case Dictionary.

FoamFile
{
    version         2.0;
    format          ascii;

    root            "";
    case            "";
    instance        "system";
    local           "";

    class           dictionary;
    object          AL2DDict;
}

// * * * * * * * * * * * * * * * * * * * * * * * * * * * * * * * * * * * * * //

monitorFunctionFrom monitorFunctionMapped;
monitorFieldName monitorFromGradU;
maxIters 50;

// ************************************************************************* //


