/*--------------------------------*- C++ -*----------------------------------*\
| =========                 |                                                 |
| \\      /  F ield         | OpenFOAM: The Open Source CFD Toolbox           |
|  \\    /   O peration     | Version:  2.3.0                                 |
|   \\  /    A nd           | Web:      www.OpenFOAM.org                      |
|    \\/     M anipulation  |                                                 |
\*---------------------------------------------------------------------------*/
FoamFile
{
    version     2.0;
    format      ascii;
    class       volScalarField;
    location    "0";
    object      T;
}
// * * * * * * * * * * * * * * * * * * * * * * * * * * * * * * * * * * * * * //

dimensions      [0 0 0 0 0 0 0];

internalField  uniform 0;

boundaryField
{
    south
    {
        type            cyclic;
    }
    north
    {
        type            cyclic;
    }
    east
    {
        type            cyclic;
    }
    west
    {
        type            cyclic;
    }
    top
    {
        type            zeroGradient;
    }
    ground
    {
        type            zeroGradient;
    }
}


// ************************************************************************* //
