FoamFile
{
    version         1.4;
    format          ascii;

    root            "/export/lime/data-04/sws02hs/OpenFOAM/sws02hs-1.4.1/run/shallowWater";
    case            "bucky4_30";
    instance        "constant";
    local           "";

    class           dictionary;
    object          gmtDict;
}

// How to plot
projection "X9c/9c";
projection2D XY;

FieldsToPlot
1
(
    [T contours 0.1 1 0.1 "1p,black,6_6:0"]
);

lastPlot false;
overlay true;
// options
//region "0/100/0/100";
boundaryMarks "a2e3/a2e3";
//separateLegend true;
//overlay true;
boundaryDots false;

